test_JLF/Cir_VLN_Node.Txt

LINE-GROUND and LINE-LINE VOLTAGES BY BUS & NODE

Bus  Node    VLN (kV)   Angle      pu     Base kV    Node-Node   VLL (kV)  Angle      pu

A .. 1       2.4498 /_    0.0   0.34027    12.470        1-2     4.2432 /_   30.0   0.34027
   - 2       2.4498 /_ -120.0   0.34027    12.470        2-3     4.2432 /_  -90.0   0.34027
   - 3       2.4498 /_  120.0   0.34027    12.470        3-1     4.2432 /_  150.0   0.34027
B .. 1       7.3435 /_   30.0      1.02    12.470        1-2     12.719 /_   60.0      1.02
   - 2       7.3435 /_  -90.0      1.02    12.470        2-3     12.719 /_  -60.0      1.02
   - 3       7.3435 /_  150.0      1.02    12.470        3-1     12.719 /_ -180.0      1.02
